<?xml version="1.0" ?>
<vehicleDefinitions xmlns="http://www.matsim.org/files/dtd" xmlns:xsi="http://www.w3.org/2001/XMLSchema-instance" xsi:schemaLocation="http://www.matsim.org/files/dtd http://www.matsim.org/files/dtd/vehicleDefinitions_v1.0.xsd">
  <vehicleType id="1">
    <description>train</description>
    <capacity>
      <seats persons="114"/>
      <standingRoom persons="206"/>
    </capacity>
    <length meter="150"/>
    <accessTime secondsPerPerson="0.0"/>
    <egressTime secondsPerPerson="0.0"/>
    <passengerCarEquivalents pce="0.25"/>
  </vehicleType>
  <vehicleType id="2">
    <description>bus</description>
    <capacity>
      <seats persons="25"/>
      <standingRoom persons="13"/>
    </capacity>
    <length meter="15"/>
    <accessTime secondsPerPerson="0.0"/>
    <egressTime secondsPerPerson="0.0"/>
    <passengerCarEquivalents pce="0.25"/>
  </vehicleType>
  <vehicleType id="3">
    <description>tram</description>
    <capacity>
      <seats persons="16"/>
      <standingRoom persons="50"/>
    </capacity>
    <length meter="30"/>
    <accessTime secondsPerPerson="0.0"/>
    <egressTime secondsPerPerson="0.0"/>
    <passengerCarEquivalents pce="0.25"/>
  </vehicleType>
  <vehicle id="bus_00001" type="2"/>
  <vehicle id="bus_00002" type="2"/>
  <vehicle id="bus_00003" type="2"/>
  <vehicle id="bus_00004" type="2"/>
  <vehicle id="bus_00005" type="2"/>
  <vehicle id="bus_00006" type="2"/>
  <vehicle id="bus_00007" type="2"/>
  <vehicle id="bus_00008" type="2"/>
  <vehicle id="bus_00009" type="2"/>
  <vehicle id="bus_00010" type="2"/>
  <vehicle id="bus_00011" type="2"/>
  <vehicle id="bus_00012" type="2"/>
  <vehicle id="bus_00013" type="2"/>
  <vehicle id="bus_00014" type="2"/>
  <vehicle id="bus_00015" type="2"/>
  <vehicle id="bus_00016" type="2"/>
  <vehicle id="bus_00017" type="2"/>
  <vehicle id="bus_00018" type="2"/>
  <vehicle id="bus_00019" type="2"/>
  <vehicle id="bus_00020" type="2"/>
  <vehicle id="bus_00021" type="2"/>
  <vehicle id="bus_00022" type="2"/>
  <vehicle id="bus_00023" type="2"/>
  <vehicle id="bus_00024" type="2"/>
  <vehicle id="bus_00025" type="2"/>
  <vehicle id="bus_00026" type="2"/>
  <vehicle id="bus_00027" type="2"/>
  <vehicle id="bus_00028" type="2"/>
  <vehicle id="bus_00029" type="2"/>
  <vehicle id="bus_00030" type="2"/>
  <vehicle id="bus_00031" type="2"/>
  <vehicle id="bus_00032" type="2"/>
  <vehicle id="bus_00033" type="2"/>
  <vehicle id="bus_00034" type="2"/>
  <vehicle id="bus_00035" type="2"/>
  <vehicle id="bus_00036" type="2"/>
  <vehicle id="bus_00037" type="2"/>
  <vehicle id="bus_00038" type="2"/>
  <vehicle id="bus_00039" type="2"/>
  <vehicle id="bus_00040" type="2"/>
  <vehicle id="bus_00041" type="2"/>
  <vehicle id="bus_00042" type="2"/>
  <vehicle id="bus_00043" type="2"/>
  <vehicle id="bus_00044" type="2"/>
  <vehicle id="bus_00045" type="2"/>
  <vehicle id="bus_00046" type="2"/>
  <vehicle id="bus_00047" type="2"/>
  <vehicle id="bus_00048" type="2"/>
  <vehicle id="bus_00049" type="2"/>
  <vehicle id="bus_00050" type="2"/>
  <vehicle id="bus_00051" type="2"/>
  <vehicle id="bus_00052" type="2"/>
  <vehicle id="bus_00053" type="2"/>
  <vehicle id="bus_00054" type="2"/>
  <vehicle id="bus_00055" type="2"/>
  <vehicle id="bus_00056" type="2"/>
  <vehicle id="bus_00057" type="2"/>
  <vehicle id="bus_00058" type="2"/>
  <vehicle id="bus_00059" type="2"/>
  <vehicle id="bus_00060" type="2"/>
  <vehicle id="bus_00061" type="2"/>
  <vehicle id="bus_00062" type="2"/>
  <vehicle id="bus_00063" type="2"/>
  <vehicle id="bus_00064" type="2"/>
  <vehicle id="bus_00065" type="2"/>
  <vehicle id="bus_00066" type="2"/>
  <vehicle id="bus_00067" type="2"/>
  <vehicle id="bus_00068" type="2"/>
  <vehicle id="bus_00069" type="2"/>
  <vehicle id="bus_00070" type="2"/>
  <vehicle id="bus_00071" type="2"/>
  <vehicle id="bus_00072" type="2"/>
  <vehicle id="bus_00073" type="2"/>
  <vehicle id="bus_00074" type="2"/>
  <vehicle id="bus_00075" type="2"/>
  <vehicle id="bus_00076" type="2"/>
  <vehicle id="bus_00077" type="2"/>
  <vehicle id="bus_00078" type="2"/>
  <vehicle id="bus_00079" type="2"/>
  <vehicle id="bus_00080" type="2"/>
  <vehicle id="bus_00081" type="2"/>
  <vehicle id="bus_00082" type="2"/>
  <vehicle id="bus_00083" type="2"/>
  <vehicle id="bus_00084" type="2"/>
  <vehicle id="bus_00085" type="2"/>
  <vehicle id="bus_00086" type="2"/>
  <vehicle id="bus_00087" type="2"/>
  <vehicle id="bus_00088" type="2"/>
  <vehicle id="bus_00089" type="2"/>
  <vehicle id="bus_00090" type="2"/>
  <vehicle id="bus_00091" type="2"/>
  <vehicle id="bus_00092" type="2"/>
  <vehicle id="bus_00093" type="2"/>
  <vehicle id="bus_00094" type="2"/>
  <vehicle id="bus_00095" type="2"/>
  <vehicle id="bus_00096" type="2"/>
  <vehicle id="bus_00097" type="2"/>
  <vehicle id="bus_00098" type="2"/>
  <vehicle id="bus_00099" type="2"/>
  <vehicle id="bus_00100" type="2"/>
  <vehicle id="bus_00101" type="2"/>
  <vehicle id="bus_00102" type="2"/>
  <vehicle id="bus_00103" type="2"/>
  <vehicle id="bus_00104" type="2"/>
  <vehicle id="bus_00105" type="2"/>
  <vehicle id="bus_00106" type="2"/>
  <vehicle id="bus_00107" type="2"/>
  <vehicle id="bus_00108" type="2"/>
  <vehicle id="bus_00109" type="2"/>
  <vehicle id="bus_00110" type="2"/>
  <vehicle id="bus_00111" type="2"/>
  <vehicle id="bus_00112" type="2"/>
  <vehicle id="bus_00113" type="2"/>
  <vehicle id="bus_00114" type="2"/>
  <vehicle id="bus_00115" type="2"/>
  <vehicle id="bus_00116" type="2"/>
  <vehicle id="bus_00117" type="2"/>
  <vehicle id="bus_00118" type="2"/>
  <vehicle id="bus_00119" type="2"/>
  <vehicle id="bus_00120" type="2"/>
  <vehicle id="bus_00121" type="2"/>
  <vehicle id="bus_00122" type="2"/>
  <vehicle id="bus_00123" type="2"/>
  <vehicle id="bus_00124" type="2"/>
  <vehicle id="bus_00125" type="2"/>
  <vehicle id="bus_00126" type="2"/>
  <vehicle id="bus_00127" type="2"/>
  <vehicle id="bus_00128" type="2"/>
  <vehicle id="bus_00129" type="2"/>
  <vehicle id="bus_00130" type="2"/>
  <vehicle id="bus_00131" type="2"/>
  <vehicle id="bus_00132" type="2"/>
  <vehicle id="bus_00133" type="2"/>
  <vehicle id="bus_00134" type="2"/>
  <vehicle id="bus_00135" type="2"/>
  <vehicle id="bus_00136" type="2"/>
  <vehicle id="bus_00137" type="2"/>
  <vehicle id="bus_00138" type="2"/>
  <vehicle id="bus_00139" type="2"/>
  <vehicle id="bus_00140" type="2"/>
  <vehicle id="bus_00141" type="2"/>
  <vehicle id="bus_00142" type="2"/>
  <vehicle id="bus_00143" type="2"/>
  <vehicle id="bus_00144" type="2"/>
  <vehicle id="bus_00145" type="2"/>
  <vehicle id="bus_00146" type="2"/>
  <vehicle id="bus_00147" type="2"/>
  <vehicle id="bus_00148" type="2"/>
  <vehicle id="bus_00149" type="2"/>
  <vehicle id="bus_00150" type="2"/>
  <vehicle id="bus_00151" type="2"/>
  <vehicle id="bus_00152" type="2"/>
  <vehicle id="bus_00153" type="2"/>
  <vehicle id="bus_00154" type="2"/>
  <vehicle id="bus_00155" type="2"/>
  <vehicle id="bus_00156" type="2"/>
  <vehicle id="bus_00157" type="2"/>
  <vehicle id="bus_00158" type="2"/>
  <vehicle id="bus_00159" type="2"/>
  <vehicle id="bus_00160" type="2"/>
  <vehicle id="bus_00161" type="2"/>
  <vehicle id="bus_00162" type="2"/>
  <vehicle id="bus_00163" type="2"/>
  <vehicle id="bus_00164" type="2"/>
  <vehicle id="bus_00165" type="2"/>
  <vehicle id="bus_00166" type="2"/>
  <vehicle id="bus_00167" type="2"/>
  <vehicle id="bus_00168" type="2"/>
  <vehicle id="bus_00169" type="2"/>
  <vehicle id="bus_00170" type="2"/>
  <vehicle id="bus_00171" type="2"/>
  <vehicle id="bus_00172" type="2"/>
  <vehicle id="bus_00173" type="2"/>
  <vehicle id="bus_00174" type="2"/>
  <vehicle id="bus_00175" type="2"/>
  <vehicle id="bus_00176" type="2"/>
  <vehicle id="bus_00177" type="2"/>
  <vehicle id="bus_00178" type="2"/>
  <vehicle id="bus_00179" type="2"/>
  <vehicle id="bus_00180" type="2"/>
  <vehicle id="bus_00181" type="2"/>
  <vehicle id="bus_00182" type="2"/>
  <vehicle id="bus_00183" type="2"/>
  <vehicle id="bus_00184" type="2"/>
  <vehicle id="bus_00185" type="2"/>
  <vehicle id="bus_00186" type="2"/>
  <vehicle id="bus_00187" type="2"/>
  <vehicle id="bus_00188" type="2"/>
  <vehicle id="bus_00189" type="2"/>
  <vehicle id="bus_00190" type="2"/>
  <vehicle id="bus_00191" type="2"/>
  <vehicle id="bus_00192" type="2"/>
  <vehicle id="bus_00193" type="2"/>
  <vehicle id="bus_00194" type="2"/>
  <vehicle id="bus_00195" type="2"/>
  <vehicle id="bus_00196" type="2"/>
  <vehicle id="bus_00197" type="2"/>
  <vehicle id="bus_00198" type="2"/>
  <vehicle id="bus_00199" type="2"/>
  <vehicle id="bus_00200" type="2"/>
  <vehicle id="bus_00201" type="2"/>
  <vehicle id="bus_00202" type="2"/>
  <vehicle id="bus_00203" type="2"/>
  <vehicle id="bus_00204" type="2"/>
  <vehicle id="bus_00205" type="2"/>
  <vehicle id="bus_00206" type="2"/>
  <vehicle id="bus_00207" type="2"/>
  <vehicle id="bus_00208" type="2"/>
  <vehicle id="bus_00209" type="2"/>
  <vehicle id="bus_00210" type="2"/>
  <vehicle id="bus_00211" type="2"/>
  <vehicle id="train_00001" type="1"/>
  <vehicle id="train_00002" type="1"/>
  <vehicle id="bus_00212" type="2"/>
  <vehicle id="bus_00213" type="2"/>
  <vehicle id="bus_00214" type="2"/>
  <vehicle id="bus_00215" type="2"/>
  <vehicle id="bus_00216" type="2"/>
  <vehicle id="bus_00217" type="2"/>
  <vehicle id="bus_00218" type="2"/>
  <vehicle id="bus_00219" type="2"/>
  <vehicle id="bus_00220" type="2"/>
  <vehicle id="bus_00221" type="2"/>
  <vehicle id="bus_00222" type="2"/>
  <vehicle id="bus_00223" type="2"/>
  <vehicle id="bus_00224" type="2"/>
  <vehicle id="bus_00225" type="2"/>
  <vehicle id="bus_00226" type="2"/>
  <vehicle id="bus_00227" type="2"/>
  <vehicle id="bus_00228" type="2"/>
  <vehicle id="bus_00229" type="2"/>
  <vehicle id="bus_00230" type="2"/>
  <vehicle id="bus_00231" type="2"/>
  <vehicle id="bus_00232" type="2"/>
  <vehicle id="bus_00233" type="2"/>
  <vehicle id="bus_00234" type="2"/>
  <vehicle id="bus_00235" type="2"/>
  <vehicle id="bus_00236" type="2"/>
  <vehicle id="bus_00237" type="2"/>
  <vehicle id="bus_00238" type="2"/>
  <vehicle id="bus_00239" type="2"/>
  <vehicle id="bus_00240" type="2"/>
  <vehicle id="bus_00241" type="2"/>
  <vehicle id="bus_00242" type="2"/>
  <vehicle id="bus_00243" type="2"/>
  <vehicle id="bus_00244" type="2"/>
  <vehicle id="bus_00245" type="2"/>
  <vehicle id="bus_00246" type="2"/>
  <vehicle id="bus_00247" type="2"/>
  <vehicle id="bus_00248" type="2"/>
  <vehicle id="bus_00249" type="2"/>
  <vehicle id="bus_00250" type="2"/>
  <vehicle id="bus_00251" type="2"/>
  <vehicle id="bus_00252" type="2"/>
  <vehicle id="bus_00253" type="2"/>
  <vehicle id="bus_00254" type="2"/>
  <vehicle id="bus_00255" type="2"/>
  <vehicle id="bus_00256" type="2"/>
  <vehicle id="bus_00257" type="2"/>
  <vehicle id="bus_00258" type="2"/>
  <vehicle id="bus_00259" type="2"/>
  <vehicle id="bus_00260" type="2"/>
  <vehicle id="bus_00261" type="2"/>
  <vehicle id="bus_00262" type="2"/>
  <vehicle id="bus_00263" type="2"/>
  <vehicle id="bus_00264" type="2"/>
  <vehicle id="bus_00265" type="2"/>
  <vehicle id="bus_00266" type="2"/>
  <vehicle id="bus_00267" type="2"/>
  <vehicle id="bus_00268" type="2"/>
  <vehicle id="bus_00269" type="2"/>
  <vehicle id="bus_00270" type="2"/>
  <vehicle id="bus_00271" type="2"/>
  <vehicle id="bus_00272" type="2"/>
  <vehicle id="bus_00273" type="2"/>
  <vehicle id="bus_00274" type="2"/>
  <vehicle id="bus_00275" type="2"/>
  <vehicle id="bus_00276" type="2"/>
  <vehicle id="bus_00277" type="2"/>
  <vehicle id="bus_00278" type="2"/>
  <vehicle id="bus_00279" type="2"/>
  <vehicle id="bus_00280" type="2"/>
  <vehicle id="bus_00281" type="2"/>
  <vehicle id="bus_00282" type="2"/>
  <vehicle id="bus_00283" type="2"/>
  <vehicle id="bus_00284" type="2"/>
  <vehicle id="bus_00285" type="2"/>
  <vehicle id="bus_00286" type="2"/>
  <vehicle id="bus_00287" type="2"/>
  <vehicle id="bus_00288" type="2"/>
  <vehicle id="bus_00289" type="2"/>
  <vehicle id="bus_00290" type="2"/>
  <vehicle id="bus_00291" type="2"/>
  <vehicle id="bus_00292" type="2"/>
  <vehicle id="bus_00293" type="2"/>
  <vehicle id="bus_00294" type="2"/>
  <vehicle id="bus_00295" type="2"/>
  <vehicle id="bus_00296" type="2"/>
  <vehicle id="bus_00297" type="2"/>
  <vehicle id="bus_00298" type="2"/>
  <vehicle id="bus_00299" type="2"/>
  <vehicle id="bus_00300" type="2"/>
  <vehicle id="bus_00301" type="2"/>
  <vehicle id="bus_00302" type="2"/>
  <vehicle id="bus_00303" type="2"/>
  <vehicle id="bus_00304" type="2"/>
  <vehicle id="bus_00305" type="2"/>
  <vehicle id="bus_00306" type="2"/>
  <vehicle id="bus_00307" type="2"/>
  <vehicle id="bus_00308" type="2"/>
  <vehicle id="bus_00309" type="2"/>
  <vehicle id="bus_00310" type="2"/>
  <vehicle id="bus_00311" type="2"/>
  <vehicle id="bus_00312" type="2"/>
  <vehicle id="bus_00313" type="2"/>
  <vehicle id="bus_00314" type="2"/>
  <vehicle id="bus_00315" type="2"/>
  <vehicle id="bus_00316" type="2"/>
  <vehicle id="bus_00317" type="2"/>
  <vehicle id="bus_00318" type="2"/>
  <vehicle id="bus_00319" type="2"/>
  <vehicle id="bus_00320" type="2"/>
  <vehicle id="bus_00321" type="2"/>
  <vehicle id="bus_00322" type="2"/>
  <vehicle id="bus_00323" type="2"/>
  <vehicle id="bus_00324" type="2"/>
  <vehicle id="bus_00325" type="2"/>
  <vehicle id="bus_00326" type="2"/>
  <vehicle id="bus_00327" type="2"/>
  <vehicle id="bus_00328" type="2"/>
  <vehicle id="bus_00329" type="2"/>
  <vehicle id="bus_00330" type="2"/>
  <vehicle id="bus_00331" type="2"/>
  <vehicle id="bus_00332" type="2"/>
  <vehicle id="bus_00333" type="2"/>
  <vehicle id="bus_00334" type="2"/>
  <vehicle id="bus_00335" type="2"/>
  <vehicle id="bus_00336" type="2"/>
  <vehicle id="bus_00337" type="2"/>
  <vehicle id="bus_00338" type="2"/>
  <vehicle id="bus_00339" type="2"/>
  <vehicle id="bus_00340" type="2"/>
  <vehicle id="bus_00341" type="2"/>
  <vehicle id="bus_00342" type="2"/>
  <vehicle id="bus_00343" type="2"/>
  <vehicle id="bus_00344" type="2"/>
  <vehicle id="bus_00345" type="2"/>
  <vehicle id="bus_00346" type="2"/>
  <vehicle id="bus_00347" type="2"/>
  <vehicle id="bus_00348" type="2"/>
  <vehicle id="bus_00349" type="2"/>
  <vehicle id="bus_00350" type="2"/>
  <vehicle id="bus_00351" type="2"/>
  <vehicle id="bus_00352" type="2"/>
  <vehicle id="bus_00353" type="2"/>
  <vehicle id="bus_00354" type="2"/>
  <vehicle id="bus_00355" type="2"/>
  <vehicle id="bus_00356" type="2"/>
  <vehicle id="bus_00357" type="2"/>
  <vehicle id="bus_00358" type="2"/>
  <vehicle id="bus_00359" type="2"/>
  <vehicle id="bus_00360" type="2"/>
  <vehicle id="bus_00361" type="2"/>
  <vehicle id="bus_00362" type="2"/>
  <vehicle id="bus_00363" type="2"/>
  <vehicle id="bus_00364" type="2"/>
  <vehicle id="bus_00365" type="2"/>
  <vehicle id="bus_00366" type="2"/>
  <vehicle id="bus_00367" type="2"/>
  <vehicle id="bus_00368" type="2"/>
  <vehicle id="bus_00369" type="2"/>
  <vehicle id="bus_00370" type="2"/>
  <vehicle id="train_00003" type="1"/>
  <vehicle id="bus_00371" type="2"/>
  <vehicle id="bus_00372" type="2"/>
  <vehicle id="bus_00373" type="2"/>
  <vehicle id="bus_00374" type="2"/>
  <vehicle id="bus_00375" type="2"/>
  <vehicle id="bus_00376" type="2"/>
  <vehicle id="bus_00377" type="2"/>
  <vehicle id="bus_00378" type="2"/>
  <vehicle id="bus_00379" type="2"/>
  <vehicle id="bus_00380" type="2"/>
  <vehicle id="bus_00381" type="2"/>
  <vehicle id="bus_00382" type="2"/>
  <vehicle id="bus_00383" type="2"/>
  <vehicle id="bus_00384" type="2"/>
  <vehicle id="bus_00385" type="2"/>
  <vehicle id="bus_00386" type="2"/>
  <vehicle id="bus_00387" type="2"/>
  <vehicle id="bus_00388" type="2"/>
  <vehicle id="bus_00389" type="2"/>
  <vehicle id="bus_00390" type="2"/>
  <vehicle id="bus_00391" type="2"/>
  <vehicle id="bus_00392" type="2"/>
  <vehicle id="bus_00393" type="2"/>
  <vehicle id="bus_00394" type="2"/>
  <vehicle id="bus_00395" type="2"/>
  <vehicle id="bus_00396" type="2"/>
  <vehicle id="bus_00397" type="2"/>
  <vehicle id="bus_00398" type="2"/>
  <vehicle id="bus_00399" type="2"/>
  <vehicle id="bus_00400" type="2"/>
  <vehicle id="bus_00401" type="2"/>
  <vehicle id="bus_00402" type="2"/>
  <vehicle id="bus_00403" type="2"/>
  <vehicle id="bus_00404" type="2"/>
  <vehicle id="bus_00405" type="2"/>
  <vehicle id="bus_00406" type="2"/>
  <vehicle id="bus_00407" type="2"/>
  <vehicle id="bus_00408" type="2"/>
  <vehicle id="bus_00409" type="2"/>
  <vehicle id="bus_00410" type="2"/>
  <vehicle id="bus_00411" type="2"/>
  <vehicle id="bus_00412" type="2"/>
  <vehicle id="bus_00413" type="2"/>
  <vehicle id="bus_00414" type="2"/>
  <vehicle id="bus_00415" type="2"/>
  <vehicle id="bus_00416" type="2"/>
  <vehicle id="bus_00417" type="2"/>
  <vehicle id="bus_00418" type="2"/>
  <vehicle id="bus_00419" type="2"/>
  <vehicle id="bus_00420" type="2"/>
  <vehicle id="bus_00421" type="2"/>
  <vehicle id="bus_00422" type="2"/>
  <vehicle id="bus_00423" type="2"/>
  <vehicle id="bus_00424" type="2"/>
  <vehicle id="bus_00425" type="2"/>
  <vehicle id="bus_00426" type="2"/>
  <vehicle id="bus_00427" type="2"/>
  <vehicle id="bus_00428" type="2"/>
  <vehicle id="bus_00429" type="2"/>
  <vehicle id="bus_00430" type="2"/>
  <vehicle id="bus_00431" type="2"/>
  <vehicle id="bus_00432" type="2"/>
  <vehicle id="bus_00433" type="2"/>
  <vehicle id="bus_00434" type="2"/>
  <vehicle id="bus_00435" type="2"/>
  <vehicle id="bus_00436" type="2"/>
  <vehicle id="bus_00437" type="2"/>
  <vehicle id="train_00004" type="1"/>
  <vehicle id="train_00005" type="1"/>
  <vehicle id="train_00006" type="1"/>
  <vehicle id="train_00007" type="1"/>
  <vehicle id="train_00008" type="1"/>
  <vehicle id="train_00009" type="1"/>
  <vehicle id="train_00010" type="1"/>
  <vehicle id="train_00011" type="1"/>
  <vehicle id="train_00012" type="1"/>
  <vehicle id="train_00013" type="1"/>
  <vehicle id="train_00014" type="1"/>
  <vehicle id="train_00015" type="1"/>
  <vehicle id="train_00016" type="1"/>
  <vehicle id="bus_00438" type="2"/>
  <vehicle id="bus_00439" type="2"/>
  <vehicle id="bus_00440" type="2"/>
  <vehicle id="bus_00441" type="2"/>
  <vehicle id="bus_00442" type="2"/>
  <vehicle id="bus_00443" type="2"/>
  <vehicle id="bus_00444" type="2"/>
  <vehicle id="bus_00445" type="2"/>
  <vehicle id="bus_00446" type="2"/>
  <vehicle id="bus_00447" type="2"/>
  <vehicle id="bus_00448" type="2"/>
  <vehicle id="bus_00449" type="2"/>
  <vehicle id="bus_00450" type="2"/>
  <vehicle id="bus_00451" type="2"/>
  <vehicle id="bus_00452" type="2"/>
  <vehicle id="bus_00453" type="2"/>
  <vehicle id="bus_00454" type="2"/>
  <vehicle id="bus_00455" type="2"/>
  <vehicle id="bus_00456" type="2"/>
  <vehicle id="bus_00457" type="2"/>
  <vehicle id="bus_00458" type="2"/>
  <vehicle id="bus_00459" type="2"/>
  <vehicle id="bus_00460" type="2"/>
  <vehicle id="bus_00461" type="2"/>
  <vehicle id="bus_00462" type="2"/>
  <vehicle id="bus_00463" type="2"/>
  <vehicle id="bus_00464" type="2"/>
  <vehicle id="bus_00465" type="2"/>
  <vehicle id="bus_00466" type="2"/>
  <vehicle id="bus_00467" type="2"/>
  <vehicle id="bus_00468" type="2"/>
  <vehicle id="bus_00469" type="2"/>
  <vehicle id="bus_00470" type="2"/>
  <vehicle id="bus_00471" type="2"/>
  <vehicle id="bus_00472" type="2"/>
  <vehicle id="bus_00473" type="2"/>
  <vehicle id="bus_00474" type="2"/>
  <vehicle id="bus_00475" type="2"/>
  <vehicle id="bus_00476" type="2"/>
  <vehicle id="bus_00477" type="2"/>
  <vehicle id="bus_00478" type="2"/>
  <vehicle id="bus_00479" type="2"/>
  <vehicle id="bus_00480" type="2"/>
  <vehicle id="bus_00481" type="2"/>
  <vehicle id="bus_00482" type="2"/>
  <vehicle id="bus_00483" type="2"/>
  <vehicle id="bus_00484" type="2"/>
  <vehicle id="bus_00485" type="2"/>
  <vehicle id="bus_00486" type="2"/>
  <vehicle id="bus_00487" type="2"/>
  <vehicle id="bus_00488" type="2"/>
  <vehicle id="bus_00489" type="2"/>
  <vehicle id="bus_00490" type="2"/>
  <vehicle id="bus_00491" type="2"/>
  <vehicle id="bus_00492" type="2"/>
  <vehicle id="bus_00493" type="2"/>
  <vehicle id="bus_00494" type="2"/>
  <vehicle id="bus_00495" type="2"/>
  <vehicle id="bus_00496" type="2"/>
  <vehicle id="bus_00497" type="2"/>
  <vehicle id="bus_00498" type="2"/>
  <vehicle id="bus_00499" type="2"/>
  <vehicle id="bus_00500" type="2"/>
  <vehicle id="bus_00501" type="2"/>
  <vehicle id="bus_00502" type="2"/>
  <vehicle id="bus_00503" type="2"/>
  <vehicle id="bus_00504" type="2"/>
  <vehicle id="bus_00505" type="2"/>
  <vehicle id="bus_00506" type="2"/>
  <vehicle id="bus_00507" type="2"/>
  <vehicle id="bus_00508" type="2"/>
  <vehicle id="bus_00509" type="2"/>
  <vehicle id="bus_00510" type="2"/>
  <vehicle id="bus_00511" type="2"/>
  <vehicle id="bus_00512" type="2"/>
  <vehicle id="bus_00513" type="2"/>
  <vehicle id="bus_00514" type="2"/>
  <vehicle id="bus_00515" type="2"/>
  <vehicle id="bus_00516" type="2"/>
  <vehicle id="bus_00517" type="2"/>
  <vehicle id="bus_00518" type="2"/>
  <vehicle id="bus_00519" type="2"/>
  <vehicle id="bus_00520" type="2"/>
  <vehicle id="bus_00521" type="2"/>
  <vehicle id="bus_00522" type="2"/>
  <vehicle id="bus_00523" type="2"/>
  <vehicle id="bus_00524" type="2"/>
  <vehicle id="bus_00525" type="2"/>
  <vehicle id="bus_00526" type="2"/>
  <vehicle id="bus_00527" type="2"/>
  <vehicle id="bus_00528" type="2"/>
  <vehicle id="bus_00529" type="2"/>
  <vehicle id="bus_00530" type="2"/>
  <vehicle id="bus_00531" type="2"/>
  <vehicle id="bus_00532" type="2"/>
  <vehicle id="bus_00533" type="2"/>
  <vehicle id="bus_00534" type="2"/>
  <vehicle id="bus_00535" type="2"/>
  <vehicle id="bus_00536" type="2"/>
  <vehicle id="bus_00537" type="2"/>
  <vehicle id="bus_00538" type="2"/>
  <vehicle id="bus_00539" type="2"/>
  <vehicle id="bus_00540" type="2"/>
  <vehicle id="bus_00541" type="2"/>
  <vehicle id="bus_00542" type="2"/>
  <vehicle id="bus_00543" type="2"/>
  <vehicle id="bus_00544" type="2"/>
  <vehicle id="bus_00545" type="2"/>
  <vehicle id="bus_00546" type="2"/>
  <vehicle id="bus_00547" type="2"/>
  <vehicle id="bus_00548" type="2"/>
  <vehicle id="bus_00549" type="2"/>
  <vehicle id="bus_00550" type="2"/>
  <vehicle id="bus_00551" type="2"/>
  <vehicle id="bus_00552" type="2"/>
  <vehicle id="bus_00553" type="2"/>
  <vehicle id="bus_00554" type="2"/>
  <vehicle id="bus_00555" type="2"/>
  <vehicle id="bus_00556" type="2"/>
  <vehicle id="bus_00557" type="2"/>
  <vehicle id="bus_00558" type="2"/>
  <vehicle id="bus_00559" type="2"/>
  <vehicle id="bus_00560" type="2"/>
  <vehicle id="bus_00561" type="2"/>
  <vehicle id="bus_00562" type="2"/>
  <vehicle id="bus_00563" type="2"/>
  <vehicle id="bus_00564" type="2"/>
  <vehicle id="bus_00565" type="2"/>
  <vehicle id="bus_00566" type="2"/>
  <vehicle id="bus_00567" type="2"/>
  <vehicle id="bus_00568" type="2"/>
  <vehicle id="bus_00569" type="2"/>
  <vehicle id="bus_00570" type="2"/>
  <vehicle id="bus_00571" type="2"/>
  <vehicle id="bus_00572" type="2"/>
  <vehicle id="bus_00573" type="2"/>
  <vehicle id="bus_00574" type="2"/>
  <vehicle id="bus_00575" type="2"/>
  <vehicle id="bus_00576" type="2"/>
  <vehicle id="bus_00577" type="2"/>
  <vehicle id="bus_00578" type="2"/>
  <vehicle id="bus_00579" type="2"/>
  <vehicle id="bus_00580" type="2"/>
  <vehicle id="bus_00581" type="2"/>
  <vehicle id="bus_00582" type="2"/>
  <vehicle id="bus_00583" type="2"/>
  <vehicle id="bus_00584" type="2"/>
  <vehicle id="bus_00585" type="2"/>
  <vehicle id="bus_00586" type="2"/>
  <vehicle id="bus_00587" type="2"/>
  <vehicle id="bus_00588" type="2"/>
  <vehicle id="bus_00589" type="2"/>
  <vehicle id="bus_00590" type="2"/>
  <vehicle id="bus_00591" type="2"/>
  <vehicle id="bus_00592" type="2"/>
  <vehicle id="bus_00593" type="2"/>
  <vehicle id="bus_00594" type="2"/>
  <vehicle id="bus_00595" type="2"/>
  <vehicle id="bus_00596" type="2"/>
  <vehicle id="bus_00597" type="2"/>
  <vehicle id="bus_00598" type="2"/>
  <vehicle id="bus_00599" type="2"/>
  <vehicle id="bus_00600" type="2"/>
  <vehicle id="bus_00601" type="2"/>
  <vehicle id="bus_00602" type="2"/>
  <vehicle id="bus_00603" type="2"/>
  <vehicle id="bus_00604" type="2"/>
  <vehicle id="bus_00605" type="2"/>
  <vehicle id="bus_00606" type="2"/>
  <vehicle id="bus_00607" type="2"/>
  <vehicle id="bus_00608" type="2"/>
  <vehicle id="bus_00609" type="2"/>
  <vehicle id="bus_00610" type="2"/>
  <vehicle id="bus_00611" type="2"/>
  <vehicle id="bus_00612" type="2"/>
  <vehicle id="bus_00613" type="2"/>
  <vehicle id="bus_00614" type="2"/>
  <vehicle id="bus_00615" type="2"/>
  <vehicle id="bus_00616" type="2"/>
  <vehicle id="bus_00617" type="2"/>
  <vehicle id="bus_00618" type="2"/>
  <vehicle id="bus_00619" type="2"/>
  <vehicle id="bus_00620" type="2"/>
  <vehicle id="bus_00621" type="2"/>
  <vehicle id="bus_00622" type="2"/>
  <vehicle id="bus_00623" type="2"/>
  <vehicle id="bus_00624" type="2"/>
  <vehicle id="bus_00625" type="2"/>
  <vehicle id="bus_00626" type="2"/>
  <vehicle id="bus_00627" type="2"/>
  <vehicle id="bus_00628" type="2"/>
  <vehicle id="bus_00629" type="2"/>
  <vehicle id="bus_00630" type="2"/>
  <vehicle id="bus_00631" type="2"/>
  <vehicle id="bus_00632" type="2"/>
  <vehicle id="bus_00633" type="2"/>
  <vehicle id="bus_00634" type="2"/>
  <vehicle id="bus_00635" type="2"/>
  <vehicle id="bus_00636" type="2"/>
  <vehicle id="bus_00637" type="2"/>
  <vehicle id="bus_00638" type="2"/>
  <vehicle id="bus_00639" type="2"/>
  <vehicle id="bus_00640" type="2"/>
  <vehicle id="bus_00641" type="2"/>
  <vehicle id="bus_00642" type="2"/>
  <vehicle id="bus_00643" type="2"/>
  <vehicle id="bus_00644" type="2"/>
  <vehicle id="bus_00645" type="2"/>
  <vehicle id="bus_00646" type="2"/>
  <vehicle id="bus_00647" type="2"/>
  <vehicle id="bus_00648" type="2"/>
  <vehicle id="bus_00649" type="2"/>
  <vehicle id="bus_00650" type="2"/>
  <vehicle id="bus_00651" type="2"/>
  <vehicle id="bus_00652" type="2"/>
  <vehicle id="bus_00653" type="2"/>
  <vehicle id="bus_00654" type="2"/>
  <vehicle id="bus_00655" type="2"/>
  <vehicle id="bus_00656" type="2"/>
  <vehicle id="bus_00657" type="2"/>
  <vehicle id="bus_00658" type="2"/>
  <vehicle id="bus_00659" type="2"/>
  <vehicle id="bus_00660" type="2"/>
  <vehicle id="bus_00661" type="2"/>
  <vehicle id="bus_00662" type="2"/>
  <vehicle id="bus_00663" type="2"/>
  <vehicle id="bus_00664" type="2"/>
  <vehicle id="bus_00665" type="2"/>
  <vehicle id="bus_00666" type="2"/>
  <vehicle id="bus_00667" type="2"/>
  <vehicle id="bus_00668" type="2"/>
  <vehicle id="bus_00669" type="2"/>
  <vehicle id="bus_00670" type="2"/>
  <vehicle id="bus_00671" type="2"/>
  <vehicle id="bus_00672" type="2"/>
  <vehicle id="bus_00673" type="2"/>
  <vehicle id="bus_00674" type="2"/>
  <vehicle id="bus_00675" type="2"/>
  <vehicle id="bus_00676" type="2"/>
  <vehicle id="bus_00677" type="2"/>
  <vehicle id="bus_00678" type="2"/>
  <vehicle id="bus_00679" type="2"/>
  <vehicle id="bus_00680" type="2"/>
  <vehicle id="bus_00681" type="2"/>
  <vehicle id="bus_00682" type="2"/>
  <vehicle id="bus_00683" type="2"/>
  <vehicle id="bus_00684" type="2"/>
  <vehicle id="bus_00685" type="2"/>
  <vehicle id="bus_00686" type="2"/>
  <vehicle id="bus_00687" type="2"/>
  <vehicle id="bus_00688" type="2"/>
  <vehicle id="bus_00689" type="2"/>
  <vehicle id="bus_00690" type="2"/>
  <vehicle id="bus_00691" type="2"/>
  <vehicle id="bus_00692" type="2"/>
  <vehicle id="bus_00693" type="2"/>
  <vehicle id="bus_00694" type="2"/>
  <vehicle id="bus_00695" type="2"/>
  <vehicle id="bus_00696" type="2"/>
  <vehicle id="bus_00697" type="2"/>
  <vehicle id="bus_00698" type="2"/>
  <vehicle id="bus_00699" type="2"/>
  <vehicle id="bus_00700" type="2"/>
  <vehicle id="bus_00701" type="2"/>
  <vehicle id="bus_00702" type="2"/>
  <vehicle id="bus_00703" type="2"/>
  <vehicle id="bus_00704" type="2"/>
  <vehicle id="bus_00705" type="2"/>
  <vehicle id="bus_00706" type="2"/>
  <vehicle id="bus_00707" type="2"/>
  <vehicle id="bus_00708" type="2"/>
  <vehicle id="bus_00709" type="2"/>
  <vehicle id="bus_00710" type="2"/>
  <vehicle id="bus_00711" type="2"/>
  <vehicle id="bus_00712" type="2"/>
  <vehicle id="bus_00713" type="2"/>
  <vehicle id="bus_00714" type="2"/>
  <vehicle id="bus_00715" type="2"/>
  <vehicle id="bus_00716" type="2"/>
  <vehicle id="bus_00717" type="2"/>
  <vehicle id="bus_00718" type="2"/>
  <vehicle id="bus_00719" type="2"/>
  <vehicle id="bus_00720" type="2"/>
  <vehicle id="bus_00721" type="2"/>
  <vehicle id="bus_00722" type="2"/>
  <vehicle id="bus_00723" type="2"/>
  <vehicle id="bus_00724" type="2"/>
  <vehicle id="bus_00725" type="2"/>
  <vehicle id="bus_00726" type="2"/>
  <vehicle id="bus_00727" type="2"/>
  <vehicle id="bus_00728" type="2"/>
  <vehicle id="bus_00729" type="2"/>
  <vehicle id="bus_00730" type="2"/>
  <vehicle id="bus_00731" type="2"/>
  <vehicle id="bus_00732" type="2"/>
  <vehicle id="bus_00733" type="2"/>
  <vehicle id="bus_00734" type="2"/>
  <vehicle id="bus_00735" type="2"/>
  <vehicle id="bus_00736" type="2"/>
  <vehicle id="bus_00737" type="2"/>
  <vehicle id="bus_00738" type="2"/>
  <vehicle id="bus_00739" type="2"/>
  <vehicle id="bus_00740" type="2"/>
  <vehicle id="bus_00741" type="2"/>
  <vehicle id="bus_00742" type="2"/>
  <vehicle id="bus_00743" type="2"/>
  <vehicle id="bus_00744" type="2"/>
  <vehicle id="bus_00745" type="2"/>
  <vehicle id="bus_00746" type="2"/>
  <vehicle id="bus_00747" type="2"/>
  <vehicle id="bus_00748" type="2"/>
  <vehicle id="bus_00749" type="2"/>
  <vehicle id="bus_00750" type="2"/>
  <vehicle id="bus_00751" type="2"/>
  <vehicle id="bus_00752" type="2"/>
  <vehicle id="bus_00753" type="2"/>
  <vehicle id="bus_00754" type="2"/>
  <vehicle id="bus_00755" type="2"/>
  <vehicle id="bus_00756" type="2"/>
  <vehicle id="bus_00757" type="2"/>
  <vehicle id="bus_00758" type="2"/>
  <vehicle id="bus_00759" type="2"/>
  <vehicle id="bus_00760" type="2"/>
  <vehicle id="bus_00761" type="2"/>